/*---------------------------------------------------------------------------*\
| =========                 |                                                 |
| \\      /  F ield         | OpenFOAM: The Open Source CFD Toolbox           |
|  \\    /   O peration     | Version:  v1706                                 |
|   \\  /    A nd           | Web:      www.OpenFOAM.com                      |
|    \\/     M anipulation  |                                                 |
\*---------------------------------------------------------------------------*/
Build  : v1706
Arch   : "LSB;label=32;scalar=64"
Exec   : surfaceFeatureExtract
Date   : Oct 04 2024
Time   : 02:49:43
Host   : "e03a7b304ae8"
PID    : 216
Case   : //data
nProcs : 1
sigFpe : Enabling floating point exception trapping (FOAM_SIGFPE).
fileModificationChecking : Monitoring run-time modified files using timeStampMaster (fileModificationSkew 10)
allowSystemOperations : Allowing user-supplied system call operations

// * * * * * * * * * * * * * * * * * * * * * * * * * * * * * * * * * * * * * //
Create time


Note: Feature line extraction only valid on closed manifold surfaces

Reading surfaceFeatureExtractDict

Surfaces     : RocketBody.stl
Output       : RocketBody
Load options : offset
Write options: writeObj=yes writeVTK=off

Statistics:
Triangles    : 94 in 1 region(s)
Vertices     : 64
Bounding Box : (-3.054049969 -3.299999952 13.84081459) (3.545949936 3.299999952 27.84081459)

Constructing feature set from included angle 150
Selecting edges based purely on geometric tests: no

Initial Feature set:
    points : 0
    edges  : 64
    of which
        region edges   : 32
        external edges : 32
        internal edges : 0

Final Feature set:
    points : 64
    of which
        convex             : 0
        concave            : 0
        mixed              : 0
        non-feature        : 64
    edges  : 64
    of which
        external edges     : 32
        internal edges     : 0
        flat edges         : 0
        open edges         : 32
        multiply connected : 0

Writing extendedFeatureEdgeMesh to "//data/constant/extendedFeatureEdgeMesh/RocketBody.extendedFeatureEdgeMesh"

Writing extendedEdgeMesh components to "//data/constant/extendedFeatureEdgeMesh/RocketBody"
Writing 0 convex feature points to "//data/constant/extendedFeatureEdgeMesh/RocketBody_convexFeaturePts.obj"
Writing 0 concave feature points to "//data/constant/extendedFeatureEdgeMesh/RocketBody_concaveFeaturePts.obj"
Writing 0 mixed feature points to "//data/constant/extendedFeatureEdgeMesh/RocketBody_mixedFeaturePts.obj"
Writing 0 mixed feature point structure to "//data/constant/extendedFeatureEdgeMesh/RocketBody_mixedFeaturePtsStructure.obj"
Writing 32 external edges to "//data/constant/extendedFeatureEdgeMesh/RocketBody_externalEdges.obj"
Writing 0 internal edges to "//data/constant/extendedFeatureEdgeMesh/RocketBody_internalEdges.obj"
Writing 0 flat edges to "//data/constant/extendedFeatureEdgeMesh/RocketBody_flatEdges.obj"
Writing 32 open edges to "//data/constant/extendedFeatureEdgeMesh/RocketBody_openEdges.obj"
Writing 0 multiple edges to "//data/constant/extendedFeatureEdgeMesh/RocketBody_multipleEdges.obj"
Writing 32 region edges to "//data/constant/extendedFeatureEdgeMesh/RocketBody_regionEdges.obj"
Writing 64 edge directions to "//data/constant/extendedFeatureEdgeMesh/RocketBody_edgeDirections.obj"

Writing featureEdgeMesh to "//data/constant/triSurface/RocketBody.eMesh"

Surfaces     : RocketFaceDown.stl
Output       : RocketFaceDown
Load options : offset
Write options: writeObj=yes writeVTK=off

Statistics:
Triangles    : 30 in 1 region(s)
Vertices     : 32
Bounding Box : (-3.054049969 -3.299999952 13.84081459) (3.545949936 3.299999952 13.84081459)

Constructing feature set from included angle 150
Selecting edges based purely on geometric tests: no

Initial Feature set:
    points : 0
    edges  : 32
    of which
        region edges   : 32
        external edges : 0
        internal edges : 0

Final Feature set:
    points : 32
    of which
        convex             : 0
        concave            : 0
        mixed              : 0
        non-feature        : 32
    edges  : 32
    of which
        external edges     : 0
        internal edges     : 0
        flat edges         : 0
        open edges         : 32
        multiply connected : 0

Writing extendedFeatureEdgeMesh to "//data/constant/extendedFeatureEdgeMesh/RocketFaceDown.extendedFeatureEdgeMesh"

Writing extendedEdgeMesh components to "//data/constant/extendedFeatureEdgeMesh/RocketFaceDown"
Writing 0 convex feature points to "//data/constant/extendedFeatureEdgeMesh/RocketFaceDown_convexFeaturePts.obj"
Writing 0 concave feature points to "//data/constant/extendedFeatureEdgeMesh/RocketFaceDown_concaveFeaturePts.obj"
Writing 0 mixed feature points to "//data/constant/extendedFeatureEdgeMesh/RocketFaceDown_mixedFeaturePts.obj"
Writing 0 mixed feature point structure to "//data/constant/extendedFeatureEdgeMesh/RocketFaceDown_mixedFeaturePtsStructure.obj"
Writing 0 external edges to "//data/constant/extendedFeatureEdgeMesh/RocketFaceDown_externalEdges.obj"
Writing 0 internal edges to "//data/constant/extendedFeatureEdgeMesh/RocketFaceDown_internalEdges.obj"
Writing 0 flat edges to "//data/constant/extendedFeatureEdgeMesh/RocketFaceDown_flatEdges.obj"
Writing 32 open edges to "//data/constant/extendedFeatureEdgeMesh/RocketFaceDown_openEdges.obj"
Writing 0 multiple edges to "//data/constant/extendedFeatureEdgeMesh/RocketFaceDown_multipleEdges.obj"
Writing 32 region edges to "//data/constant/extendedFeatureEdgeMesh/RocketFaceDown_regionEdges.obj"
Writing 32 edge directions to "//data/constant/extendedFeatureEdgeMesh/RocketFaceDown_edgeDirections.obj"

Writing featureEdgeMesh to "//data/constant/triSurface/RocketFaceDown.eMesh"

Surfaces     : SheildBody.stl
Output       : SheildBody
Load options : offset
Write options: writeObj=yes writeVTK=off

Statistics:
Triangles    : 506 in 1 region(s)
Vertices     : 300
Bounding Box : (-15 -15.00000191 0.0494556427) (15 15 10.19999981)

Constructing feature set from included angle 150
Selecting edges based purely on geometric tests: no

Initial Feature set:
    points : 19
    edges  : 306
    of which
        region edges   : 224
        external edges : 66
        internal edges : 16

Final Feature set:
    points : 300
    of which
        convex             : 0
        concave            : 0
        mixed              : 19
        non-feature        : 281
    edges  : 306
    of which
        external edges     : 66
        internal edges     : 16
        flat edges         : 0
        open edges         : 160
        multiply connected : 64

Writing extendedFeatureEdgeMesh to "//data/constant/extendedFeatureEdgeMesh/SheildBody.extendedFeatureEdgeMesh"

Writing extendedEdgeMesh components to "//data/constant/extendedFeatureEdgeMesh/SheildBody"
Writing 0 convex feature points to "//data/constant/extendedFeatureEdgeMesh/SheildBody_convexFeaturePts.obj"
Writing 0 concave feature points to "//data/constant/extendedFeatureEdgeMesh/SheildBody_concaveFeaturePts.obj"
Writing 19 mixed feature points to "//data/constant/extendedFeatureEdgeMesh/SheildBody_mixedFeaturePts.obj"
Writing 19 mixed feature point structure to "//data/constant/extendedFeatureEdgeMesh/SheildBody_mixedFeaturePtsStructure.obj"
Writing 66 external edges to "//data/constant/extendedFeatureEdgeMesh/SheildBody_externalEdges.obj"
Writing 16 internal edges to "//data/constant/extendedFeatureEdgeMesh/SheildBody_internalEdges.obj"
Writing 0 flat edges to "//data/constant/extendedFeatureEdgeMesh/SheildBody_flatEdges.obj"
Writing 160 open edges to "//data/constant/extendedFeatureEdgeMesh/SheildBody_openEdges.obj"
Writing 64 multiple edges to "//data/constant/extendedFeatureEdgeMesh/SheildBody_multipleEdges.obj"
Writing 224 region edges to "//data/constant/extendedFeatureEdgeMesh/SheildBody_regionEdges.obj"
Writing 306 edge directions to "//data/constant/extendedFeatureEdgeMesh/SheildBody_edgeDirections.obj"

Writing featureEdgeMesh to "//data/constant/triSurface/SheildBody.eMesh"

Surfaces     : ShieldFaceOut.stl
Output       : ShieldFaceOut
Load options : offset
Write options: writeObj=yes writeVTK=off

Statistics:
Triangles    : 198 in 1 region(s)
Vertices     : 156
Bounding Box : (-15 -15.00000191 0.1865568161) (15 15 10.19999981)

Constructing feature set from included angle 150
Selecting edges based purely on geometric tests: no

Initial Feature set:
    points : 19
    edges  : 161
    of which
        region edges   : 114
        external edges : 21
        internal edges : 26

Final Feature set:
    points : 156
    of which
        convex             : 0
        concave            : 0
        mixed              : 19
        non-feature        : 137
    edges  : 161
    of which
        external edges     : 21
        internal edges     : 26
        flat edges         : 0
        open edges         : 114
        multiply connected : 0

Writing extendedFeatureEdgeMesh to "//data/constant/extendedFeatureEdgeMesh/ShieldFaceOut.extendedFeatureEdgeMesh"

Writing extendedEdgeMesh components to "//data/constant/extendedFeatureEdgeMesh/ShieldFaceOut"
Writing 0 convex feature points to "//data/constant/extendedFeatureEdgeMesh/ShieldFaceOut_convexFeaturePts.obj"
Writing 0 concave feature points to "//data/constant/extendedFeatureEdgeMesh/ShieldFaceOut_concaveFeaturePts.obj"
Writing 19 mixed feature points to "//data/constant/extendedFeatureEdgeMesh/ShieldFaceOut_mixedFeaturePts.obj"
Writing 19 mixed feature point structure to "//data/constant/extendedFeatureEdgeMesh/ShieldFaceOut_mixedFeaturePtsStructure.obj"
Writing 21 external edges to "//data/constant/extendedFeatureEdgeMesh/ShieldFaceOut_externalEdges.obj"
Writing 26 internal edges to "//data/constant/extendedFeatureEdgeMesh/ShieldFaceOut_internalEdges.obj"
Writing 0 flat edges to "//data/constant/extendedFeatureEdgeMesh/ShieldFaceOut_flatEdges.obj"
Writing 114 open edges to "//data/constant/extendedFeatureEdgeMesh/ShieldFaceOut_openEdges.obj"
Writing 0 multiple edges to "//data/constant/extendedFeatureEdgeMesh/ShieldFaceOut_multipleEdges.obj"
Writing 114 region edges to "//data/constant/extendedFeatureEdgeMesh/ShieldFaceOut_regionEdges.obj"
Writing 161 edge directions to "//data/constant/extendedFeatureEdgeMesh/ShieldFaceOut_edgeDirections.obj"

Writing featureEdgeMesh to "//data/constant/triSurface/ShieldFaceOut.eMesh"

Surfaces     : Surface.stl
Output       : Surface
Load options : offset
Write options: writeObj=yes writeVTK=off

Statistics:
Triangles    : 12 in 1 region(s)
Vertices     : 8
Bounding Box : (-20 -20 -0.2119995952) (20 20 0)

Constructing feature set from included angle 150
Selecting edges based purely on geometric tests: no

Initial Feature set:
    points : 8
    edges  : 12
    of which
        region edges   : 0
        external edges : 0
        internal edges : 12

Final Feature set:
    points : 8
    of which
        convex             : 0
        concave            : 8
        mixed              : 0
        non-feature        : 0
    edges  : 12
    of which
        external edges     : 0
        internal edges     : 12
        flat edges         : 0
        open edges         : 0
        multiply connected : 0

Writing extendedFeatureEdgeMesh to "//data/constant/extendedFeatureEdgeMesh/Surface.extendedFeatureEdgeMesh"

Writing extendedEdgeMesh components to "//data/constant/extendedFeatureEdgeMesh/Surface"
Writing 0 convex feature points to "//data/constant/extendedFeatureEdgeMesh/Surface_convexFeaturePts.obj"
Writing 8 concave feature points to "//data/constant/extendedFeatureEdgeMesh/Surface_concaveFeaturePts.obj"
Writing 0 mixed feature points to "//data/constant/extendedFeatureEdgeMesh/Surface_mixedFeaturePts.obj"
Writing 0 mixed feature point structure to "//data/constant/extendedFeatureEdgeMesh/Surface_mixedFeaturePtsStructure.obj"
Writing 0 external edges to "//data/constant/extendedFeatureEdgeMesh/Surface_externalEdges.obj"
Writing 12 internal edges to "//data/constant/extendedFeatureEdgeMesh/Surface_internalEdges.obj"
Writing 0 flat edges to "//data/constant/extendedFeatureEdgeMesh/Surface_flatEdges.obj"
Writing 0 open edges to "//data/constant/extendedFeatureEdgeMesh/Surface_openEdges.obj"
Writing 0 multiple edges to "//data/constant/extendedFeatureEdgeMesh/Surface_multipleEdges.obj"
Writing 0 region edges to "//data/constant/extendedFeatureEdgeMesh/Surface_regionEdges.obj"
Writing 12 edge directions to "//data/constant/extendedFeatureEdgeMesh/Surface_edgeDirections.obj"

Writing featureEdgeMesh to "//data/constant/triSurface/Surface.eMesh"

ExecutionTime = 0.04 s  ClockTime = 0 s

End

